Albuterol
 OpenBabel12262502003D

 38 38  0  0  1  0  0  0  0  0999 V2000
    2.8475    0.6003   -1.4661 C   0  0  0  0  0  0  0  0  0  0  0  0
    2.5339    0.2044   -0.0055 C   0  0  0  0  0  0  0  0  0  0  0  0
    2.9969    1.3277    0.9483 C   0  0  0  0  0  0  0  0  0  0  0  0
    1.0065    0.0553    0.1435 C   0  0  0  0  0  0  0  0  0  0  0  0
    3.1501   -1.0999    0.3504 N   0  0  0  0  0  0  0  0  0  0  0  0
    4.6228   -1.1576    0.3212 C   0  0  0  0  0  0  0  0  0  0  0  0
    5.1149   -2.5479    0.7777 C   0  0  3  0  0  0  0  0  0  0  0  0
    4.6220   -3.5727   -0.0511 O   0  0  0  0  0  0  0  0  0  0  0  0
    6.6295   -2.6105    0.8476 C   0  0  0  0  0  0  0  0  0  0  0  0
    7.4156   -2.4292   -0.3044 C   0  0  0  0  0  0  0  0  0  0  0  0
    8.8191   -2.4830   -0.2391 C   0  0  0  0  0  0  0  0  0  0  0  0
    9.6212   -2.2759   -1.5016 C   0  0  0  0  0  0  0  0  0  0  0  0
   10.4546   -1.1556   -1.3773 O   0  0  0  0  0  0  0  0  0  0  0  0
    9.4435   -2.7306    1.0070 C   0  0  0  0  0  0  0  0  0  0  0  0
   10.7864   -2.8047    1.1379 O   0  0  0  0  0  0  0  0  0  0  0  0
    8.6581   -2.9111    2.1497 C   0  0  0  0  0  0  0  0  0  0  0  0
    7.2662   -2.8514    2.0743 C   0  0  0  0  0  0  0  0  0  0  0  0
    2.3236    1.5431   -1.7342 H   0  0  0  0  0  0  0  0  0  0  0  0
    2.5136   -0.1955   -2.1659 H   0  0  0  0  0  0  0  0  0  0  0  0
    3.9320    0.7745   -1.6180 H   0  0  0  0  0  0  0  0  0  0  0  0
    2.4631    2.2755    0.7196 H   0  0  0  0  0  0  0  0  0  0  0  0
    4.0801    1.5393    0.8429 H   0  0  0  0  0  0  0  0  0  0  0  0
    2.7855    1.0520    2.0037 H   0  0  0  0  0  0  0  0  0  0  0  0
    0.4873    1.0066   -0.1042 H   0  0  0  0  0  0  0  0  0  0  0  0
    0.7450   -0.2260    1.1864 H   0  0  0  0  0  0  0  0  0  0  0  0
    0.6211   -0.7358   -0.5354 H   0  0  0  0  0  0  0  0  0  0  0  0
    2.7744   -1.8365   -0.2929 H   0  0  0  0  0  0  0  0  0  0  0  0
    5.0488   -0.4156    1.0265 H   0  0  0  0  0  0  0  0  0  0  0  0
    5.0017   -0.9492   -0.7003 H   0  0  0  0  0  0  0  0  0  0  0  0
    4.6953   -2.7170    1.7940 H   0  0  0  0  0  0  0  0  0  0  0  0
    4.8470   -3.3450   -0.9905 H   0  0  0  0  0  0  0  0  0  0  0  0
    6.9346   -2.2414   -1.2559 H   0  0  0  0  0  0  0  0  0  0  0  0
    8.9684   -2.1524   -2.3959 H   0  0  0  0  0  0  0  0  0  0  0  0
   10.2452   -3.1736   -1.6936 H   0  0  0  0  0  0  0  0  0  0  0  0
    9.8685   -0.3575   -1.4522 H   0  0  0  0  0  0  0  0  0  0  0  0
   11.4047   -2.7095    0.4018 H   0  0  0  0  0  0  0  0  0  0  0  0
    9.1310   -3.1006    3.1054 H   0  0  0  0  0  0  0  0  0  0  0  0
    6.6862   -2.9953    2.9774 H   0  0  0  0  0  0  0  0  0  0  0  0
  1  2  1  0  0  0  0
  1 18  1  0  0  0  0
  1 19  1  0  0  0  0
  1 20  1  0  0  0  0
  2  3  1  0  0  0  0
  2  4  1  0  0  0  0
  2  5  1  0  0  0  0
  3 21  1  0  0  0  0
  3 22  1  0  0  0  0
  3 23  1  0  0  0  0
  4 24  1  0  0  0  0
  4 25  1  0  0  0  0
  4 26  1  0  0  0  0
  5  6  1  0  0  0  0
  5 27  1  0  0  0  0
  6  7  1  0  0  0  0
  6 28  1  0  0  0  0
  6 29  1  0  0  0  0
  7  8  1  0  0  0  0
  7  9  1  0  0  0  0
  7 30  1  0  0  0  0
  8 31  1  0  0  0  0
  9 10  2  0  0  0  0
  9 17  1  0  0  0  0
 10 11  1  0  0  0  0
 10 32  1  0  0  0  0
 11 12  1  0  0  0  0
 11 14  2  0  0  0  0
 12 13  1  0  0  0  0
 12 33  1  0  0  0  0
 12 34  1  0  0  0  0
 13 35  1  0  0  0  0
 14 15  1  0  0  0  0
 14 16  1  0  0  0  0
 15 36  1  0  0  0  0
 16 17  2  0  0  0  0
 16 37  1  0  0  0  0
 17 38  1  0  0  0  0
M  END
>  <Energy>
182.59

$$$$
